*SPEF "IEEE 1481-1998"
*DESIGN "vedic8x8"
*DATE "Fri Dec 29 13:09:25 2023"
*VENDOR "Cadence Design Systems, Inc."
*PROGRAM "Innovus"
*VERSION "21.15-s110_1"
*DESIGN_FLOW "PIN_CAP NONE" "NAME_SCOPE LOCAL"
*DIVIDER /
*DELIMITER :
*BUS_DELIMITER []
*T_UNIT 1 NS
*C_UNIT 1 PF
*R_UNIT 1 OHM
*L_UNIT 1 HENRY

// MMMC spef file for corner 'rc'

*NAME_MAP

*1 a[7]
*2 a[6]
*3 a[5]
*4 a[4]
*5 a[3]
*6 a[2]
*7 a[1]
*8 a[0]
*9 b[7]
*10 b[6]
*11 b[5]
*12 b[4]
*13 b[3]
*14 b[2]
*15 b[1]
*16 b[0]
*17 clk
*18 result[15]
*19 result[14]
*20 result[13]
*21 result[12]
*22 result[11]
*23 result[10]
*24 result[9]
*25 result[8]
*26 result[7]
*27 result[6]
*28 result[5]
*29 result[4]
*30 result[3]
*31 result[2]
*32 result[1]
*33 result[0]
*34 t7[7]
*35 t7[6]
*36 t7[5]
*37 t7[4]
*38 t7[3]
*39 t7[2]
*40 t7[1]
*41 t7[0]
*42 t6[7]
*43 t6[6]
*44 t6[5]
*45 t6[4]
*46 t6[3]
*47 t6[2]
*48 t6[1]
*49 t6[0]
*50 t5[9]
*51 t5[8]
*52 t5[7]
*53 t5[6]
*54 t5[5]
*55 t5[4]
*56 t5[3]
*57 t5[2]
*58 t5[1]
*59 t5[0]
*60 t4[8]
*61 t4[7]
*62 t4[6]
*63 t4[5]
*64 t4[4]
*65 t4[3]
*66 t4[2]
*67 t4[1]
*68 t4[0]
*69 t3[7]
*70 t3[6]
*71 t3[5]
*72 t3[4]
*73 t3[3]
*74 t3[2]
*75 t3[1]
*76 t3[0]
*77 t2[7]
*78 t2[6]
*79 t2[5]
*80 t2[4]
*81 t2[3]
*82 t2[2]
*83 t2[1]
*84 t2[0]
*85 t1[7]
*86 t1[6]
*87 t1[5]
*88 t1[4]
*89 t1[3]
*90 t1[2]
*91 t1[1]
*92 t1[0]
*93 M1_t7[3]
*94 M1_t7[2]
*95 M1_t7[1]
*96 M1_t7[0]
*97 M3_t7[3]
*98 M3_t7[2]
*99 M3_t7[1]
*100 M3_t7[0]
*101 M2_t7[3]
*102 M2_t7[2]
*103 M2_t7[1]
*104 M2_t7[0]
*105 M4_t7[3]
*106 M4_t7[2]
*107 M4_t7[1]
*108 M4_t7[0]
*109 M4_t6[3]
*110 M4_t6[2]
*111 M4_t6[1]
*112 M4_t6[0]
*113 M4_t5[5]
*114 M4_t5[4]
*115 M4_t5[3]
*116 M4_t5[2]
*117 M4_t5[1]
*118 M4_t5[0]
*119 M2_t6[3]
*120 M2_t6[2]
*121 M2_t6[1]
*122 M2_t6[0]
*123 M2_t5[5]
*124 M2_t5[4]
*125 M2_t5[3]
*126 M2_t5[2]
*127 M2_t5[1]
*128 M2_t5[0]
*129 M3_t6[3]
*130 M3_t6[2]
*131 M3_t6[1]
*132 M3_t6[0]
*133 M3_t5[5]
*134 M3_t5[4]
*135 M3_t5[3]
*136 M3_t5[2]
*137 M3_t5[1]
*138 M3_t5[0]
*139 M1_t6[3]
*140 M1_t6[2]
*141 M1_t6[1]
*142 M1_t6[0]
*143 M1_t5[5]
*144 M1_t5[4]
*145 M1_t5[3]
*146 M1_t5[2]
*147 M1_t5[1]
*148 M1_t5[0]
*149 M3_t4[4]
*150 M3_t4[3]
*151 M3_t4[2]
*152 M3_t4[1]
*153 M3_t4[0]
*154 M2_t4[4]
*155 M2_t4[3]
*156 M2_t4[2]
*157 M2_t4[1]
*158 M2_t4[0]
*159 M1_t4[4]
*160 M1_t4[3]
*161 M1_t4[2]
*162 M1_t4[1]
*163 M1_t4[0]
*164 M4_t4[4]
*165 M4_t4[3]
*166 M4_t4[2]
*167 M4_t4[1]
*168 M4_t4[0]
*169 M3_t3[3]
*170 M3_t3[2]
*171 M3_t3[1]
*172 M3_t3[0]
*173 M3_t2[3]
*174 M3_t2[2]
*175 M3_t2[1]
*176 M3_t2[0]
*177 M4_t3[3]
*178 M4_t3[2]
*179 M4_t3[1]
*180 M4_t3[0]
*181 M4_t2[3]
*182 M4_t2[2]
*183 M4_t2[1]
*184 M4_t2[0]
*185 M1_t3[3]
*186 M1_t3[2]
*187 M1_t3[1]
*188 M1_t3[0]
*189 M1_t2[3]
*190 M1_t2[2]
*191 M1_t2[1]
*192 M1_t2[0]
*193 M2_t3[3]
*194 M2_t3[2]
*195 M2_t3[1]
*196 M2_t3[0]
*197 M2_t2[3]
*198 M2_t2[2]
*199 M2_t2[1]
*200 M2_t2[0]
*201 M2_t1[3]
*202 M2_t1[2]
*203 M2_t1[1]
*204 M2_t1[0]
*205 M3_t1[3]
*206 M3_t1[2]
*207 M3_t1[1]
*208 M3_t1[0]
*209 M4_t1[3]
*210 M4_t1[2]
*211 M4_t1[1]
*212 M4_t1[0]
*213 M1_t1[3]
*214 M1_t1[2]
*215 M1_t1[1]
*216 M1_t1[0]
*217 M4_V4_w[3]
*218 M2_V2_w[3]
*219 M3_V3_w[3]
*220 M3_V1_w[3]
*221 M1_V3_w[3]
*222 M2_V4_w[3]
*223 M3_V2_w[3]
*224 M1_V2_w[3]
*225 M4_V3_w[3]
*226 M4_V1_w[3]
*227 M2_V1_w[3]
*228 M4_V2_w[3]
*229 M2_V3_w[3]
*230 M1_V1_w[3]
*231 M1_V4_w[3]
*232 M3_V4_w[3]
*233 UNCONNECTED
*234 UNCONNECTED0
*235 UNCONNECTED1
*236 UNCONNECTED2
*237 UNCONNECTED3
*238 UNCONNECTED4
*239 UNCONNECTED5
*240 UNCONNECTED6
*241 UNCONNECTED7
*242 UNCONNECTED8
*243 UNCONNECTED9
*244 UNCONNECTED10
*245 UNCONNECTED11
*246 UNCONNECTED12
*247 UNCONNECTED13
*248 UNCONNECTED14
*249 n_0
*250 n_1
*251 n_2
*252 n_3
*253 n_4
*254 n_5
*255 n_6
*256 n_7
*257 n_8
*258 n_9
*259 n_10
*260 n_11
*261 n_12
*262 n_13
*263 n_14
*264 n_15
*265 n_16
*266 n_17
*267 n_18
*268 n_19
*269 n_20
*270 n_21
*271 n_22
*272 n_23
*273 n_24
*274 n_25
*275 n_26
*276 n_27
*277 n_28
*278 n_29
*279 n_30
*280 n_31
*281 n_32
*282 n_33
*283 n_34
*284 n_35
*285 n_36
*286 n_37
*287 n_38
*288 n_39
*289 n_40
*290 n_41
*291 n_42
*292 n_43
*293 n_44
*294 n_45
*295 n_46
*296 n_47
*297 n_48
*298 n_49
*299 n_50
*300 n_51
*301 n_52
*302 n_53
*303 n_54
*304 n_55
*305 n_56
*306 n_57
*307 n_58
*308 n_59
*309 n_60
*310 n_61
*311 n_62
*312 n_63
*313 n_64
*314 n_65
*315 n_66
*316 n_67
*317 n_68
*318 n_69
*319 n_70
*320 n_71
*321 n_72
*322 n_73
*323 n_74
*324 n_75
*325 n_76
*326 n_77
*327 n_78
*328 n_79
*329 n_80
*330 n_81
*331 n_82
*332 n_83
*333 n_84
*334 n_85
*335 n_86
*336 n_87
*337 n_88
*338 n_89
*339 n_90
*340 n_91
*341 n_92
*342 n_93
*343 n_94
*344 n_95
*345 n_96
*346 n_97
*347 n_98
*348 n_99
*349 n_100
*350 n_101
*351 n_102
*352 n_103
*353 n_104
*354 n_105
*355 n_106
*356 n_107
*357 n_108
*358 n_109
*359 n_110
*360 n_111
*361 n_112
*362 n_113
*363 n_114
*364 n_115
*365 n_116
*366 n_117
*367 n_118
*368 n_119
*369 n_120
*370 n_121
*371 n_122
*372 n_123
*373 n_124
*374 n_125
*375 n_126
*376 n_127
*377 n_128
*378 n_129
*379 n_130
*380 n_131
*381 n_132
*382 n_133
*383 n_134
*384 n_135
*385 n_136
*386 n_137
*387 n_138
*388 n_139
*389 n_140
*390 n_141
*391 n_142
*392 n_143
*393 n_144
*394 n_145
*395 n_146
*396 n_147
*397 n_148
*398 n_149
*399 n_150
*400 n_151
*401 n_152
*402 n_153
*403 n_154
*404 n_155
*405 n_156
*406 n_157
*407 n_158
*408 n_159
*409 n_160
*410 n_161
*411 n_162
*412 n_163
*413 n_164
*414 n_165
*415 n_166
*416 n_167
*417 n_168
*418 n_169
*419 n_170
*420 n_171
*421 n_172
*422 n_173
*423 n_174
*424 n_175
*425 n_176
*426 n_177
*427 n_178
*428 n_179
*429 n_180
*430 n_181
*431 n_182
*432 n_183
*433 n_184
*434 n_185
*435 n_186
*436 n_187
*437 n_188
*438 n_189
*439 n_190
*440 n_191
*441 n_192
*442 n_193
*443 n_194
*444 n_195
*445 n_196
*446 n_197
*447 n_198
*448 n_199
*449 n_200
*450 n_201
*451 n_202
*452 n_203
*453 n_204
*454 n_205
*455 n_206
*456 n_207
*457 n_208
*458 n_209
*459 n_210
*460 n_211
*461 n_212
*462 n_213
*463 n_214
*464 n_215
*465 n_216
*466 n_217
*467 n_218
*468 n_219
*469 n_220
*470 n_221
*471 n_222
*472 n_223
*473 n_224
*474 n_225
*475 n_226
*476 n_227
*477 n_228
*478 n_229
*479 n_230
*480 n_231
*481 n_232
*482 n_233
*483 n_234
*484 n_235
*485 n_236
*486 n_237
*487 n_238
*488 n_239
*489 n_240
*490 n_241
*491 n_242
*492 n_243
*493 n_244
*494 n_245
*495 n_246
*496 n_247
*497 n_248
*498 n_249
*499 n_250
*500 n_251
*501 n_252
*502 n_253
*503 n_254
*504 n_255
*505 n_256
*506 n_257
*507 n_258
*508 n_259
*509 n_260
*510 n_261
*511 n_262
*512 n_263
*513 n_264
*514 n_265
*515 n_266
*516 n_267
*517 n_268
*518 n_269
*519 n_270
*520 n_271
*521 n_273
*522 n_274
*523 n_275
*524 n_276
*525 n_277
*526 n_278
*527 n_279
*528 n_280
*529 n_281
*530 n_282
*531 n_283
*532 n_284
*533 n_285
*534 n_286
*535 n_287
*536 n_288
*537 n_289
*538 n_290
*539 n_291
*540 n_292
*541 n_293
*542 n_294
*543 n_295
*544 n_296
*545 n_297
*546 n_298
*547 n_299
*548 n_300
*549 n_301
*550 n_302
*551 n_303
*552 n_304
*553 n_305
*554 n_306
*555 n_307
*556 n_308
*557 n_309
*558 n_310
*559 n_311
*560 n_312
*561 n_313
*562 n_314
*563 n_315
*564 n_316
*565 n_317
*566 op_reg\[15\]
*567 op_reg\[14\]
*568 A3_sum_reg\[7\]
*569 A3_sum_reg\[6\]
*570 g5415__2398
*571 op_reg\[13\]
*572 g5413
*573 A3_sum_reg\[5\]
*574 g5417__5107
*575 g5418__6260
*576 op_reg\[12\]
*577 A3_sum_reg\[4\]
*578 g5421__4319
*579 op_reg\[11\]
*580 A3_sum_reg\[3\]
*581 g5424__8428
*582 op_reg\[10\]
*583 A3_sum_reg\[2\]
*584 op_reg\[9\]
*585 g5431__5526
*586 A3_sum_reg\[1\]
*587 g5432__6783
*588 g5435__3680
*589 g5441__1617
*590 A2_sum_reg\[8\]
*591 A2_sum_reg\[9\]
*592 g5436
*593 g5444__2802
*594 op_reg\[8\]
*595 g5437__1705
*596 g5445__5122
*597 g5429__8246
*598 A3_sum_reg\[0\]
*599 g5447__7098
*600 A2_sum_reg\[7\]
*601 g5439__6131
*602 g5438__1881
*603 g5449__5115
*604 g5451__7482
*605 g5454__4733
*606 g5440__6161
*607 A2_sum_reg\[6\]
*608 g5450__9315
*609 A2_sum_reg\[5\]
*610 g5443__9945
*611 g5455__2883
*612 g5453__2346
*613 g5456__1666
*614 A2_sum_reg\[4\]
*615 g5460__7410
*616 g5458__6417
*617 op_reg\[7\]
*618 g5461
*619 A1_sum_reg\[7\]
*620 A1_sum_reg\[8\]
*621 A2_sum_reg\[3\]
*622 g5465__5477
*623 g5467__2398
*624 op_reg\[6\]
*625 g5466__5107
*626 A2_sum_reg\[2\]
*627 A1_sum_reg\[6\]
*628 g5473__6260
*629 g5471__4319
*630 op_reg\[5\]
*631 g5477__8428
*632 g5474__5526
*633 g5476
*634 A2_sum_reg\[1\]
*635 A1_sum_reg\[5\]
*636 g5485__6783
*637 M1_op_reg\[7\]
*638 M3_op_reg\[7\]
*639 M2_op_reg\[7\]
*640 M4_op_reg\[7\]
*641 g5490__3680
*642 g5491__1617
*643 g5492__2802
*644 g5493__1705
*645 M4_A3_sum_reg\[3\]
*646 M1_A3_sum_reg\[3\]
*647 M3_A3_sum_reg\[3\]
*648 M2_A3_sum_reg\[3\]
*649 M3_op_reg\[6\]
*650 M2_op_reg\[6\]
*651 M1_op_reg\[6\]
*652 g5499__5122
*653 g5498__8246
*654 g5480
*655 M4_op_reg\[6\]
*656 g5500__7098
*657 g5501__6131
*658 M3_A3_sum_reg\[2\]
*659 M1_A3_sum_reg\[2\]
*660 M4_A3_sum_reg\[2\]
*661 M2_A3_sum_reg\[2\]
*662 g5507__1881
*663 g5506__5115
*664 g5508
*665 g5509
*666 g5510
*667 g5511
*668 A1_sum_reg\[4\]
*669 g5512__7482
*670 g5513__4733
*671 g5514__6161
*672 g5515__9315
*673 g5517__9945
*674 g5518__2883
*675 g5519__2346
*676 g5520__1666
*677 g5532__7410
*678 op_reg\[4\]
*679 M1_op_reg\[5\]
*680 M3_op_reg\[5\]
*681 M4_op_reg\[5\]
*682 M2_op_reg\[5\]
*683 g5521
*684 A2_sum_reg\[0\]
*685 g5537__6417
*686 M4_A3_sum_reg\[1\]
*687 M1_A3_sum_reg\[1\]
*688 M3_A3_sum_reg\[1\]
*689 M2_A3_sum_reg\[1\]
*690 g5540__5477
*691 g5539__2398
*692 g5538__5107
*693 g5541__6260
*694 g5542__4319
*695 g5545__8428
*696 g5548__5526
*697 g5533__6783
*698 g5534__3680
*699 g5535__1617
*700 g5536__2802
*701 g5546__1705
*702 g5547__5122
*703 g5543__8246
*704 g5544__7098
*705 g5557__6131
*706 g5558__1881
*707 g5559__5115
*708 M3_A2_sum_reg\[4\]
*709 M1_A2_sum_reg\[4\]
*710 M1_A2_sum_reg\[5\]
*711 M3_A2_sum_reg\[5\]
*712 M2_A2_sum_reg\[4\]
*713 M4_A2_sum_reg\[4\]
*714 M2_A2_sum_reg\[5\]
*715 M4_A2_sum_reg\[5\]
*716 M3_op_reg\[4\]
*717 M2_op_reg\[4\]
*718 M4_op_reg\[4\]
*719 M1_op_reg\[4\]
*720 g5560__7482
*721 g5561__4733
*722 g5562__6161
*723 g5563__9315
*724 M3_A2_sum_reg\[3\]
*725 M1_A2_sum_reg\[3\]
*726 M4_A2_sum_reg\[3\]
*727 M2_A2_sum_reg\[3\]
*728 M3_A3_sum_reg\[0\]
*729 M1_A3_sum_reg\[0\]
*730 M4_A3_sum_reg\[0\]
*731 M2_A3_sum_reg\[0\]
*732 A1_sum_reg\[3\]
*733 g5588__9945
*734 g5589__2883
*735 g5590__2346
*736 g5591__1666
*737 g5578__7410
*738 g5579__6417
*739 g5580__5477
*740 g5581__2398
*741 g5582__5107
*742 g5599__6260
*743 g5600__4319
*744 g5601__8428
*745 g5602__5526
*746 g5583__6783
*747 g5573
*748 g5584__3680
*749 g5587__1617
*750 g5586__2802
*751 g5585__1705
*752 A1_sum_reg\[2\]
*753 g5592__5122
*754 g5607
*755 g5608
*756 g5609
*757 g5618
*758 M1_A1_sum_reg\[4\]
*759 M1_A1_sum_reg\[3\]
*760 M3_A2_sum_reg\[2\]
*761 g5598__8246
*762 M2_A2_sum_reg\[2\]
*763 M1_A2_sum_reg\[2\]
*764 M4_A2_sum_reg\[2\]
*765 M2_A1_sum_reg\[4\]
*766 M3_A1_sum_reg\[3\]
*767 M4_A1_sum_reg\[3\]
*768 g5619__7098
*769 M4_A1_sum_reg\[4\]
*770 M2_A1_sum_reg\[3\]
*771 M3_A1_sum_reg\[4\]
*772 g5604
*773 g5628__6131
*774 g5629__1881
*775 g5630__5115
*776 g5631__7482
*777 g5620__4733
*778 g5621__6161
*779 g5605__9315
*780 g5606__9945
*781 g5637__2883
*782 g5623__2346
*783 g5622__1666
*784 op_reg\[3\]
*785 g5638__7410
*786 M1_op_reg\[3\]
*787 M4_op_reg\[3\]
*788 M3_op_reg\[3\]
*789 M2_op_reg\[3\]
*790 g5646__6417
*791 g5639__5477
*792 g5636__2398
*793 g5641__5107
*794 g5640__6260
*795 M1_A2_sum_reg\[1\]
*796 M3_A2_sum_reg\[1\]
*797 M4_A2_sum_reg\[1\]
*798 M2_A2_sum_reg\[1\]
*799 M1_A1_sum_reg\[2\]
*800 op_reg\[2\]
*801 M4_A1_sum_reg\[2\]
*802 g5651__4319
*803 M2_A1_sum_reg\[2\]
*804 g5653__8428
*805 M3_A1_sum_reg\[2\]
*806 g5657__5526
*807 g5642__6783
*808 g5643__3680
*809 g5644__1617
*810 g5645__2802
*811 g5654__1705
*812 g5655__5122
*813 g5656__8246
*814 M1_op_reg\[2\]
*815 A1_sum_reg\[1\]
*816 M4_op_reg\[2\]
*817 M3_op_reg\[2\]
*818 M2_op_reg\[2\]
*819 g5682__7098
*820 M2_A2_sum_reg\[0\]
*821 M1_A2_sum_reg\[0\]
*822 M4_A2_sum_reg\[0\]
*823 M3_A2_sum_reg\[0\]
*824 M1_A1_sum_reg\[1\]
*825 g5702__6131
*826 g5667
*827 M2_A1_sum_reg\[1\]
*828 M3_A1_sum_reg\[1\]
*829 g5673__1881
*830 g5672__5115
*831 M4_A1_sum_reg\[1\]
*832 g5674__7482
*833 g5675__4733
*834 g5718__6161
*835 g5679__9315
*836 g5676__9945
*837 g5677__2883
*838 g5678__2346
*839 g5680__1666
*840 g5681__7410
*841 g5683__6417
*842 g5684__5477
*843 g5735__2398
*844 M1_V3_H1_sum_reg
*845 M1_V2_H1_sum_reg
*846 M1_V3_H1_carry_reg
*847 M1_V2_H1_carry_reg
*848 M2_V3_H1_sum_reg
*849 M3_V2_H1_carry_reg
*850 M2_V2_H1_carry_reg
*851 M4_V3_H1_carry_reg
*852 M3_V4_H1_sum_reg
*853 op_reg\[1\]
*854 M4_V2_H1_sum_reg
*855 M4_V4_H1_sum_reg
*856 M1_V4_H1_carry_reg
*857 M4_V4_H1_carry_reg
*858 M3_V4_H1_carry_reg
*859 M4_V1_H1_sum_reg
*860 M1_V1_H1_sum_reg
*861 M2_V1_H1_carry_reg
*862 M3_V2_H1_sum_reg
*863 M3_V3_H1_sum_reg
*864 M3_V3_H1_carry_reg
*865 M2_V4_H1_sum_reg
*866 M1_V1_H1_carry_reg
*867 M4_V2_H1_carry_reg
*868 M3_V1_H1_carry_reg
*869 M2_V3_H1_carry_reg
*870 M2_V2_H1_sum_reg
*871 M4_V3_H1_sum_reg
*872 M1_V4_H1_sum_reg
*873 M4_V1_H1_carry_reg
*874 M2_V1_H1_sum_reg
*875 g5739__5107
*876 M3_V1_H1_sum_reg
*877 g5738__6260
*878 M2_V4_H1_carry_reg
*879 A1_sum_reg\[0\]
*880 g5726__4319
*881 g5722__8428
*882 g5733__5526
*883 g5724__6783
*884 g5731__3680
*885 g5721__1617
*886 g5734__2802
*887 g5728__1705
*888 g5719__5122
*889 g5732__8246
*890 g5725__7098
*891 g5729__6131
*892 g5723__1881
*893 g5720__5115
*894 g5727__7482
*895 g5730__4733
*896 M2_op_reg\[1\]
*897 M4_op_reg\[1\]
*898 M1_op_reg\[1\]
*899 M3_op_reg\[1\]
*900 M3_A1_sum_reg\[0\]
*901 M2_A1_sum_reg\[0\]
*902 g5766__6161
*903 M1_A1_sum_reg\[0\]
*904 M4_A1_sum_reg\[0\]
*905 M1_V4_H0_sum_reg
*906 M2_V4_H0_sum_reg
*907 M3_V3_H0_sum_reg
*908 M3_V2_H0_sum_reg
*909 M3_V1_H0_sum_reg
*910 M4_V1_H0_sum_reg
*911 M2_V1_H0_sum_reg
*912 M3_V4_H0_sum_reg
*913 M1_V3_H0_sum_reg
*914 M4_V2_H0_sum_reg
*915 M2_V3_H0_sum_reg
*916 M2_V2_H0_sum_reg
*917 M4_V3_H0_sum_reg
*918 M4_V4_H0_sum_reg
*919 M1_V2_H0_sum_reg
*920 M1_V1_H0_sum_reg
*921 g5782__9315
*922 g5784__9945
*923 g5785__2883
*924 g5786__2346
*925 op_reg\[0\]
*926 g5783__1666
*927 g5787__7410
*928 M3_V4_H0_carry_reg
*929 M3_V1_H0_carry_reg
*930 M4_V2_H0_carry_reg
*931 M1_V4_H0_carry_reg
*932 M1_V1_H0_carry_reg
*933 M2_V3_H0_carry_reg
*934 M2_V2_H0_carry_reg
*935 g5802__6417
*936 M4_V1_H0_carry_reg
*937 M1_V2_H0_carry_reg
*938 M4_V3_H0_carry_reg
*939 M4_V4_H0_carry_reg
*940 M1_V3_H0_carry_reg
*941 g5806__5477
*942 g5805__2398
*943 g5788__5107
*944 g5792__6260
*945 g5793__4319
*946 g5794__8428
*947 g5795__5526
*948 g5799__6783
*949 M3_V3_H0_carry_reg
*950 g5801__3680
*951 g5803__1617
*952 g5804__2802
*953 M3_V2_H0_carry_reg
*954 g5790__1705
*955 g5800__5122
*956 M2_V1_H0_carry_reg
*957 M2_V4_H0_carry_reg
*958 g5791__8246
*959 M1_op_reg\[0\]
*960 M3_op_reg\[0\]
*961 g5807__7098
*962 g5808__6131
*963 M2_op_reg\[0\]
*964 g5810__1881
*965 g5809__5115
*966 M4_op_reg\[0\]
*967 g5831__7482
*968 g5830__4733
*969 g5837__6161
*970 g5827__9315
*971 g5838__9945
*972 g5832__2883
*973 g5829__2346
*974 g5842__1666
*975 g5833__7410
*976 g5836__6417
*977 g5841__5477
*978 g5839__2398
*979 g5828__5107
*980 g5835__6260
*981 g5834__4319
*982 g5840__8428
*983 M1_V1_res_reg
*984 M3_V1_res_reg
*985 M1_V4_res_reg
*986 M4_V3_res_reg
*987 M2_V3_res_reg
*988 M1_V2_res_reg
*989 M3_V3_res_reg
*990 M3_V4_res_reg
*991 M2_V1_res_reg
*992 M4_V1_res_reg
*993 M4_V4_res_reg
*994 M2_V2_res_reg
*995 M2_V4_res_reg
*996 M4_V2_res_reg
*997 M3_V2_res_reg
*998 M1_V3_res_reg
*999 g5886__5526
*1000 g5881__6783
*1001 g5845__3680
*1002 g5873__1617
*1003 g5889__2802
*1004 g5857__1705
*1005 g5847__5122
*1006 g5852__8246
*1007 g5854__7098
*1008 g5859__6131
*1009 g5885__1881
*1010 g5867__5115
*1011 g5861__7482
*1012 g5879__4733
*1013 g5853__6161
*1014 g5844__9315
*1015 g5863__9945
*1016 g5848__2883
*1017 g5888__2346
*1018 g5876__1666
*1019 g5855__7410
*1020 g5856__6417
*1021 g5858__5477
*1022 g5883__2398
*1023 g5866__5107
*1024 g5869__6260
*1025 g5870__4319
*1026 g5875__8428
*1027 g5890__5526
*1028 g5877__6783
*1029 g5865__3680
*1030 g5872__1617
*1031 g5874__2802
*1032 g5860__1705
*1033 g5851__5122
*1034 g5880__8246
*1035 g5884__7098
*1036 g5887__6131
*1037 g5868__1881
*1038 g5862__5115
*1039 g5846__7482
*1040 g5878__4733
*1041 g5843__6161
*1042 g5864__9315
*1043 g5871__9945
*1044 g5849__2883
*1045 g5882__2346
*1046 g5850__1666


*PORTS

*1 I *C 57.565 0
*2 I *C 58.145 0
*3 I *C 107.01 52.635
*4 I *C 107.01 54.085
*5 I *C 47.705 103.53
*6 I *C 45.095 103.53
*7 I *C 41.325 103.53
*8 I *C 40.455 103.53
*9 I *C 0 50.895
*10 I *C 0 52.055
*11 I *C 0 54.665
*12 I *C 0 57.275
*13 I *C 107.01 59.015
*14 I *C 61.045 103.53
*15 I *C 59.595 103.53
*16 I *C 56.115 103.53
*17 I *C 53.795 103.53
*18 O *C 16.675 0
*19 O *C 21.895 0
*20 O *C 28.275 0
*21 O *C 34.655 0
*22 O *C 43.065 0
*23 O *C 49.735 0
*24 O *C 56.985 0
*25 O *C 48.575 0
*26 O *C 64.525 103.53
*27 O *C 69.745 103.53
*28 O *C 92.365 103.53
*29 O *C 88.885 103.53
*30 O *C 17.255 103.53
*31 O *C 19.575 103.53
*32 O *C 0 69.745
*33 O *C 0 64.525


*D_NET *1 0.0125072

*CONN
*I *1014:B I *C 78.735 36.105 *L 0.00176 *D NAND2XL
*I *1008:B I *C 81.345 36.105 *L 0.00181 *D AND2X1
*I *1025:B I *C 81.345 46.545 *L 0.00181 *D AND2X1
*I *1011:B I *C 80.475 49.155 *L 0.00176 *D NAND2XL
*P *1 I *C 57.565 0 *L 0
*I *1032:B I *C 34.655 36.105 *L 0.00176 *D NAND2XL
*I *999:B I *C 32.335 36.105 *L 0.00181 *D AND2X1
*I *1026:B I *C 34.365 51.765 *L 0.00181 *D AND2X1
*I *1013:B I *C 36.685 51.765 *L 0.00176 *D NAND2XL

*CAP
1 *1:2 0.000210551
2 *1:4 5.32747e-05
3 *1:5 0.000171729
4 *1:7 0.000303502
5 *1:9 6.65934e-05
6 *1:10 0.000303502
7 *1008:B 6.65934e-05
8 *1:12 0.000664814
9 *1:13 0.000177027
10 *1:14 0.000794886
11 *1:15 0.000191779
12 *1:16 0.000439583
13 *1:17 0.000158977
14 *1:18 0.000295044
15 *1:19 0.000470982
16 *1:20 0.00024673
17 *1:21 0.000295044
18 *1:22 0.000326118
19 *1:23 0.000246829
20 *1:24 8.85133e-05
21 *1:25 0.000308991
22 *1:26 0.0005384
23 *1:27 0.000206531
24 *1:28 0.000285442
25 *1:29 0.0005384
26 *1:30 0.000177027
27 *1:32 0.000328258
28 *1:33 0.000130962
29 *1:34 4.42566e-05
30 *1:35 0.000856325
31 *1:36 0.000130962
32 *1 0.000799236
33 *1:39 0.000101859
34 *1:40 8.7308e-05
35 *1:41 0.000176597
36 *1:42 0.000208706
37 *1:43 3.21086e-05
38 *1:45 0.000353194
39 *1:46 8.7308e-05
40 *1:47 0.000321086
41 *999:B 8.7308e-05
42 *1:49 0.00044952
43 *1:50 0.000417412
44 *1:51 1.45513e-05
45 *1:52 0.000101859
46 *1:53 4.3654e-05
47 *1026:B 4.3654e-05
48 *1:55 3.21086e-05
49 *1:56 3.21086e-05

*RES
1 *1:56 *1013:B 1.4
2 *1:55 *1:56 0.248566
3 *1:53 *1:55 1.4
4 *1:52 *1026:B 0.372866
5 *1:52 *1:53 0.372866
6 *1:51 *1:52 0.124289
7 *1:50 *1:51 1.4
8 *1:49 *1:50 3.23136
9 *1:47 *1:49 0.248566
10 *1:46 *999:B 0.745732
11 *1:45 *1:47 2.23709
12 *1:43 *1:46 1.4
13 *1:42 *1:45 0.497132
14 *1:41 *1032:B 1.4
15 *1:41 *1:43 0.248566
16 *1:41 *1:42 1.11855
17 *1:40 *1:41 1.4
18 *1:39 *1:40 0.745732
19 *1:36 *1:39 0.124289
20 *1:35 *1 6.95986
21 *1:34 *1011:B 1.4
22 *1:33 *1:36 0.99431
23 *1:32 *1:35 0.497133
24 *1:30 *1:34 0.372849
25 *1:29 *1:33 0.124289
26 *1:28 *1:32 2.36138
27 *1:27 *1025:B 1.4
28 *1:27 *1:30 1.11855
29 *1:26 *1:29 4.4744
30 *1:25 *1:28 0.124283
31 *1:24 *1:27 0.621416
32 *1:23 *1:26 0.124289
33 *1:22 *1:25 2.48566
34 *1:21 *1:24 0.124283
35 *1:20 *1:23 1.98862
36 *1:19 *1:22 0.248566
37 *1:18 *1:21 2.36138
38 *1:17 *1:20 0.124289
39 *1:16 *1:19 3.47993
40 *1:15 *1:18 0.124283
41 *1:14 *1:17 1.24289
42 *1:14 *1:16 1.4
43 *1:13 *1:15 1.4914
44 *1:12 *1:14 5.59299
45 *1008:B *1:13 1.4
46 *1:10 *1:12 0.124289
47 *1:9 *1008:B 0.621444
48 *1:7 *1:10 2.48578
49 *1:6 *1:9 1.4
50 *1:6 *1:8 0.220714
51 *1:5 *1:7 0.124289
52 *1:4 *1:6 1.4
53 *1:2 *1:5 1.36718
54 *1:2 *1:4 0.497155
55 *1:1 *1014:B 1.4
56 *1:1 *1:2 1.4
57 *1:0 *1:1 0.03
*END

*D_NET *2 0.0166597

*CONN
*I *994:D I *C 75.835 54.955 *L 0.00179 *D DFFTRXL
*I *1012:B I *C 81.925 51.765 *L 0.00176 *D NAND2XL
*I *1039:B I *C 79.605 38.715 *L 0.00176 *D NAND2XL
*I *995:D I *C 74.965 34.075 *L 0.00179 *D DFFTRXL
*P *2 I *C 58.145 0 *L 0
*I *993:D I *C 35.235 40.745 *L 0.00179 *D DFFTRXL
*I *996:D I *C 43.355 44.515 *L 0.00179 *D DFFTRXL
*I *1009:B I *C 39.585 51.765 *L 0.00176 *D NAND2XL
*I *1017:B I *C 33.785 38.715 *L 0.00176 *D NAND2XL

*CAP
1 *2:1 0.000309568
2 *2:2 0.000325267
3 *2:3 0.000300032
4 *2:5 0.00026689
5 *2:6 0.000300032
6 *2:7 0.000298289
7 *2:8 0.000156231
8 *2:9 0.000125595
9 *2:10 0.000156231
10 *2:11 9.41964e-05
11 *2:13 0.000219792
12 *2:14 0.000219792
13 *2:15 6.27976e-05
14 *2:16 4.70982e-05
15 *2:17 0.000211685
16 *2:18 0.00012497
17 *2:19 8.67148e-05
18 *2:20 1.47522e-05
19 *2:21 0.000172693
20 *2:22 1.47522e-05
21 *2:24 0.000188393
22 *2:26 4.70982e-05
23 *2:27 6.27976e-05
24 *2:28 4.33574e-05
25 *2:29 3.13988e-05
26 *2:30 5.78099e-05
27 *2:32 0.000534742
28 *2:33 0.000534742
29 *2:34 5.78099e-05
30 *2:35 4.33574e-05
31 *2:36 1.56994e-05
32 *2:37 0.00107112
33 *2:38 0.00105542
34 *2:39 0.000197405
35 *2:40 0.000236886
36 *2:41 0.000228353
37 *2:42 5.26412e-05
38 *2:43 0.000242625
39 *2:44 0.000263066
40 *2:45 0.00041389
41 *2:46 0.000262973
42 *2:47 0.00041389
43 *2:48 0.000561884
44 *2:49 5.70883e-05
45 *2:50 0.000548817
46 *2 4.28162e-05
47 *2:52 0.00129952
48 *2:53 0.00133163
49 *2:54 0.000208706
50 *2:55 0.000176597
51 *2:56 0.000291027
52 *2:57 0.000160065
53 *2:58 0.000247373
54 *2:59 0.000116411
55 *2:60 0.000305032
56 *2:61 6.42172e-05
57 *2:62 0.000144489
58 *2:63 0.000385303
59 *2:64 0.000144489
60 *2:65 0.000144489
61 *2:66 0.000321086
62 *2:67 0.000160543
63 *2:70 0.000240814
64 *2:71 0.00011238
65 *2:73 3.21086e-05

*RES
1 *2:73 *1017:B 1.4
2 *2:71 *2:73 0.248566
3 *2:70 *1009:B 1.4
4 *2:67 *2:71 0.621415
5 *2:66 *2:70 1.86424
6 *2:65 *996:D 1.4
7 *2:64 *993:D 1.4
8 *2:64 *2:67 0.621415
9 *2:63 *2:66 0.621415
10 *2:62 *2:65 1.11855
11 *2:61 *2:64 0.497132
12 *2:60 *2:63 2.36138
13 *2:59 *2:62 1.4
14 *2:58 *2:61 1.4
15 *2:57 *2:60 1.4
16 *2:57 *2:59 0.99431
17 *2:56 *2:58 2.11291
18 *2:56 *2:57 0.372866
19 *2:55 *2:56 1.4
20 *2:54 *2:55 1.36711
21 *2:53 *2:54 0.248566
22 *2:52 *2:53 10.5643
23 *2:50 *2:52 1.4
24 *2:49 *2 0.37285
25 *2:48 *2:50 5.21992
26 *2:47 *2:49 0.124283
27 *2:46 *2:48 0.124284
28 *2:45 *2:47 3.47993
29 *2:44 *2:46 2.36139
30 *2:43 *2:45 0.124283
31 *2:42 *2:44 0.124284
32 *2:41 *2:43 1.98853
33 *2:40 *2:42 0.372851
34 *2:40 *2:41 1.4
35 *2:39 *2:40 1.86426
36 *2:38 *2:39 1.4
37 *2:37 *2:38 8.82411
38 *2:36 *2:37 0.124283
39 *2:35 *2:36 1.4
40 *2:34 *2:35 0.372866
41 *2:33 *2:34 0.124289
42 *2:32 *2:33 4.4744
43 *2:30 *2:32 0.124289
44 *2:29 *995:D 1.4
45 *2:28 *2:30 0.372866
46 *2:27 *2:29 0.248566
47 *2:27 *2:28 1.4
48 *2:26 *2:27 0.248566
49 *2:24 *2:26 0.124283
50 *2:22 *1039:B 1.4
51 *2:21 *2:24 1.36711
52 *2:20 *2:23 0.0878571
53 *2:20 *2:22 0.124283
54 *2:19 *2:21 1.4
55 *2:18 *2:20 1.4
56 *2:17 *2:19 0.745733
57 *2:17 *2:18 1.1186
58 *2:16 *2:17 1.4
59 *2:15 *2:16 0.372849
60 *2:14 *2:15 0.124283
61 *2:13 *2:14 1.61568
62 *2:11 *2:13 0.124283
63 *2:10 *1012:B 1.4
64 *2:9 *2:11 0.621415
65 *2:8 *2:10 1.36712
66 *2:7 *2:9 0.372849
67 *2:6 *2:8 1.4
68 *2:5 *2:7 1.98853
69 *2:3 *2:6 2.60995
70 *2:2 *2:5 0.124283
71 *2:1 *994:D 1.4
72 *2:1 *2:3 1.4
73 *2:1 *2:2 2.48566
74 *2:0 *2:1 0.220714
*END

*D_NET *3 0.0127932

*CONN
*I *1036:B I *C 46.835 43.935 *L 0.00176 *D NAND2XL
*I *1005:B I *C 42.775 46.545 *L 0.00181 *D AND2X1
*I *1046:B I *C 78.445 43.935 *L 0.00176 *D NAND2XL
*I *1003:B I *C 80.185 41.325 *L 0.00181 *D AND2X1
*P *3 I *C 107.01 52.635 *L 0
*I *1042:B I *C 79.895 62.205 *L 0.00176 *D NAND2XL
*I *1006:B I *C 82.215 62.205 *L 0.00181 *D AND2X1
*I *1024:B I *C 35.235 62.205 *L 0.00181 *D AND2X1
*I *1045:B I *C 26.535 59.595 *L 0.00176 *D NAND2XL

*CAP
1 *3:2 0.000291027
2 *3:4 7.27567e-05
3 *3:5 0.000232821
4 *3:6 0.000492917
5 *3:7 0.000144489
6 *3:8 0.000492818
7 *3:9 0.00022476
8 *3:10 0.00105446
9 *3:11 8.02715e-05
10 *3:12 2.91027e-05
11 *3:13 0.00104001
12 *3:14 0.000130962
13 *1005:B 2.91027e-05
14 *3:16 0.000191779
15 *3:17 0.000145513
16 *3:18 0.000118018
17 *3:19 0.00013277
18 *3:21 0.000160065
19 *3:22 0.000427496
20 *3:23 7.99121e-05
21 *3:24 0.000160065
22 *3:25 0.000693157
23 *1003:B 7.99121e-05
24 *3:27 5.82054e-05
25 *3:28 0.00113834
26 *3:29 0.000338786
27 *3:30 4.3654e-05
28 *3:31 0.00115189
29 *3:32 0.000169393
30 *3:33 0.000573454
31 *3:34 0.000126435
32 *3:35 0.000183509
33 *3:36 0.000589299
34 *3 0.000112884
35 *3:38 2.82322e-05
36 *3:40 9.50697e-05
37 *3:41 8.13098e-05
38 *3:42 9.50697e-05
39 *1006:B 8.13098e-05
40 *3:44 7.92248e-05
41 *3:45 0.00012676
42 *3:46 6.33798e-05
43 *3:47 4.66104e-05
44 *3:49 6.21472e-05
45 *3:50 0.000279662
46 *3:51 0.000279662
47 *3:52 0.000170905
48 *3:53 0.000155368
49 *3:54 7.92248e-05
50 *3:55 7.92248e-05

*RES
1 *3:55 *1045:B 1.4
2 *3:54 *3:55 0.621444
3 *3:53 *3:54 1.4
4 *3:52 *3:53 1.24289
5 *3:51 *3:52 0.124289
6 *3:50 *3:51 2.11291
7 *3:49 *3:50 0.124289
8 *3:47 *3:49 0.372866
9 *3:46 *1024:B 1.4
10 *3:45 *3:47 1.4
11 *3:45 *3:46 0.497155
12 *3:44 *3:45 0.497155
13 *3:42 *3:44 0.124289
14 *3:41 *1006:B 0.745701
15 *3:40 *3:42 0.621444
16 *3:38 *3:41 1.4
17 *3:36 *3:40 0.124289
18 *3:35 *1042:B 1.4
19 *3:35 *3:38 0.248567
20 *3:34 *3 1.11859
21 *3:33 *3:36 4.47431
22 *3:32 *3:35 1.36712
23 *3:31 *3:34 0.124284
24 *3:30 *3:33 1.4
25 *3:29 *3:32 0.124283
26 *3:28 *3:31 10.4398
27 *3:27 *3:30 0.372866
28 *3:25 *3:29 2.85852
29 *3:25 *3:28 1.4
30 *3:24 *3:27 0.124289
31 *3:23 *1003:B 0.745732
32 *3:22 *3:25 3.10708
33 *3:21 *3:24 1.24289
34 *3:19 *3:23 1.4
35 *3:18 *3:22 0.497133
36 *3:17 *3:21 0.124289
37 *3:16 *1046:B 1.4
38 *3:16 *3:19 1.11855
39 *3:16 *3:18 0.497133
40 *3:14 *3:17 1.1186
41 *3:13 *3:16 1.4
42 *3:12 *1005:B 0.248578
43 *3:11 *3:14 1.4
44 *3:10 *3:13 8.94879
45 *3:9 *3:12 1.4
46 *3:9 *3:11 0.621415
47 *3:8 *3:10 0.124289
48 *3:7 *3:9 1.11855
49 *3:6 *3:8 4.10153
50 *3:5 *3:7 1.4
51 *3:4 *3:6 0.124289
52 *3:2 *3:5 1.98862
53 *3:2 *3:4 0.497155
54 *3:1 *1036:B 1.4
55 *3:1 *3:2 1.4
56 *3:0 *3:1 0.220714
*END

*D_NET *4 0.0120091

*CONN
*I *986:D I *C 43.355 49.735 *L 0.00179 *D DFFTRXL
*I *1010:B I *C 46.835 46.545 *L 0.00176 *D NAND2XL
*I *1035:B I *C 31.465 51.765 *L 0.00176 *D NAND2XL
*I *992:D I *C 47.995 45.965 *L 0.00179 *D DFFTRXL
*I *987:D I *C 78.155 56.405 *L 0.00179 *D DFFTRXL
*I *1022:B I *C 78.445 64.815 *L 0.00176 *D NAND2XL
*I *1044:B I *C 78.445 46.545 *L 0.00176 *D NAND2XL
*P *4 I *C 107.01 54.085 *L 0
*I *991:D I *C 76.415 70.615 *L 0.00179 *D DFFTRXL

*CAP
1 *4:2 0.000203719
2 *4:4 0.000174616
3 *4:5 4.3654e-05
4 *4:6 0.00022476
5 *4:7 0.000582054
6 *4:8 9.63258e-05
7 *4:9 0.000208706
8 *4:10 0.000567502
9 *4:11 0.000254461
10 *4:12 9.63258e-05
11 *4:13 3.21086e-05
12 *4:14 9.63258e-05
13 *4:15 0.000238407
14 *4:16 9.63258e-05
15 *4:18 9.63258e-05
16 *4:19 0.00110951
17 *4:20 3.21086e-05
18 *4:22 0.00115562
19 *4:24 0.000584024
20 *4:25 0.000579481
21 *4:26 4.15636e-05
22 *4:28 0.000536411
23 *4:31 0.000437598
24 *4:32 0.00041859
25 *4:33 4.29072e-05
26 *4:34 1.35516e-05
27 *4:35 0.00032105
28 *4:36 4.51433e-05
29 *4:38 0.000230378
30 *4:39 0.000103265
31 *4:40 3.04682e-05
32 *4:41 0.000230378
33 *4:42 7.37611e-05
34 *4:43 9.22144e-05
35 *4:44 0.000243929
36 *4:46 9.22144e-05
37 *4:47 0.000243929
38 *4:48 4.57023e-05
39 *4:49 6.77582e-05
40 *4:50 6.09364e-05
41 *4:51 6.77582e-05
42 *4:52 0.000198043
43 *4:53 0.000257481
44 *4:54 0.000198043
45 *4:55 0.000257481
46 *4:56 6.09364e-05
47 *4:57 0.000546536
48 *4:58 4.57023e-05
49 *4 0.000532985

*RES
1 *4:58 *991:D 1.4
2 *4:57 *4 4.97138
3 *4:56 *4:58 0.372849
4 *4:55 *4:57 0.124284
5 *4:54 *4:56 0.124283
6 *4:53 *4:55 2.2371
7 *4:52 *4:54 1.4914
8 *4:51 *4:53 0.124284
9 *4:50 *4:52 0.124283
10 *4:49 *4:51 0.497134
11 *4:48 *4:50 0.372849
12 *4:47 *4:49 0.124284
13 *4:46 *4:48 1.4
14 *4:44 *4:47 2.11282
15 *4:43 *4:46 0.745699
16 *4:42 *1044:B 1.4
17 *4:41 *4:44 0.124284
18 *4:40 *4:43 1.4
19 *4:39 *4:42 0.621416
20 *4:38 *4:41 1.98854
21 *4:36 *4:40 0.248566
22 *4:35 *4:39 0.248566
23 *4:34 *4:38 0.124284
24 *4:33 *1022:B 1.4
25 *4:33 *4:36 0.124283
26 *4:32 *4:35 2.48566
27 *4:32 *4:34 1.4
28 *4:31 *4:33 0.248567
29 *4:28 *4:32 1.11855
30 *4:28 *4:31 3.60422
31 *4:27 *987:D 1.4
32 *4:27 *4:29 0.220714
33 *4:26 *4:28 1.4
34 *4:25 *4:27 1.4
35 *4:25 *4:26 0.37285
36 *4:24 *4:25 4.34991
37 *4:22 *4:24 0.372849
38 *4:20 *992:D 1.4
39 *4:19 *4:22 8.94848
40 *4:18 *1035:B 1.4
41 *4:16 *4:20 0.248566
42 *4:15 *4:19 1.4
43 *4:14 *4:18 0.745698
44 *4:13 *1010:B 1.4
45 *4:12 *4:16 0.497132
46 *4:11 *4:15 1.86431
47 *4:10 *4:14 1.4
48 *4:9 *4:13 0.248566
49 *4:9 *4:12 0.248566
50 *4:8 *4:11 0.124283
51 *4:7 *4:10 4.84726
52 *4:6 *4:9 1.11855
53 *4:6 *4:8 0.621415
54 *4:5 *4:7 0.124289
55 *4:4 *4:6 1.4
56 *4:2 *4:5 0.248578
57 *4:2 *4:4 1.49146
58 *4:1 *986:D 1.4
59 *4:1 *4:2 1.4
60 *4:0 *4:1 0.220714
*END

*D_NET *5 0.0104998

*CONN
*I *1004:B I *C 53.215 38.715 *L 0.00181 *D AND2X1
*I *1037:B I *C 50.025 41.325 *L 0.00176 *D NAND2XL
*I *1001:B I *C 46.255 51.765 *L 0.00181 *D AND2X1
*I *1016:B I *C 43.065 51.765 *L 0.00176 *D NAND2XL
*I *1002:B I *C 41.905 75.255 *L 0.00181 *D AND2X1
*I *1021:B I *C 40.745 72.645 *L 0.00176 *D NAND2XL
*I *1033:B I *C 49.445 77.865 *L 0.00176 *D NAND2XL
*P *5 I *C 47.705 103.53 *L 0
*I *1000:B I *C 58.145 77.865 *L 0.00181 *D AND2X1

*CAP
1 *5:2 0.000159719
2 *5:4 0.000159719
3 *5:5 0.000144489
4 *5:6 0.000256869
5 *5:7 0.000160543
6 *5:9 0.000256869
7 *5:10 0.00022476
8 *5:11 0.000160543
9 *5:12 0.000160543
10 *5:13 6.42172e-05
11 *5:14 4.81629e-05
12 *5:15 1.45513e-05
13 *5:16 0.000160065
14 *5:17 0.000305578
15 *5:18 0.000160065
16 *5:19 4.81629e-05
17 *5:20 4.81629e-05
18 *5:21 4.81629e-05
19 *5:22 0.000143547
20 *5:24 0.000111229
21 *5:26 0.00110915
22 *5:27 0.00114084
23 *5:28 0.000205984
24 *5:29 0.000205984
25 *5:30 0.000110915
26 *5:31 0.000110915
27 *5:33 4.75349e-05
28 *5:34 0.000372883
29 *5:36 0.000372883
30 *5:37 0.00021269
31 *5:38 0.00021054
32 *5:39 6.33798e-05
33 *5:40 0.000457862
34 *5:41 3.16899e-05
35 *5:42 0.000457862
36 *5:43 0.000124294
37 *5:45 5.9079e-05
38 *5:46 0.000139831
39 *5:47 5.9079e-05
40 *5:48 0.000307801
41 *5:49 0.000310165
42 *5:50 0.000307633
43 *5:51 0.000310165
44 *5:52 6.14763e-05
45 *5:53 0.000428323
46 *5:54 4.61072e-05
47 *5 0.000398783
